! Chemkin file converted from Cantera solution object
! 

ELEMENTS
O  H  C  N  Ar  He
END


SPECIES
POSF10325    C2H4         CH4          C3H6         iC4H8        C4H81
H2           C2H6         CO           C6H6         C2H2         C6H5CH3
CH3          O2           H            OH           HO2          O
H2O          H2O2         CH2          CH2*         HCO          CH2O
CH3O         CO2          C2H3         C2H5         HCCO         CH2CO
CH2CHO       aC3H5        nC3H7        c-C4H5       C5H4O        C5H5
C6H5         C6H5CH2      C6H5O        C6H5CO       C6H5CHO
A2C11H21     A2C11H21O2   A2C11H20OOH  A2C11H20     A2C11H21O4
A2C11H20O3   N2
END


REACTIONS  CAL/MOLE  MOLES
POSF10325 => 0.163333 C6H5CH3 + 0.17 C6H6 + 0.261401 C4H81 + 0.087134 iC4H8 + 0.819058 C3H6 + 1.742676 C2H4 + 1.5 CH3 + 0.5 H                    1.1912404E+027   -2.8307914E+000    8.7943137E+004    
POSF10325 + H => A2C11H21 + H2                                                                                                                   6.5273449E-002    4.6053530E+000    1.4920853E+003    
POSF10325 + CH3 => A2C11H21 + CH4                                                                                                                3.5439127E-007    6.0680657E+000    5.6809527E+003    
POSF10325 + OH => A2C11H21 + H2O                                                                                                                 3.2385549E+009    1.1062594E+000    1.0041758E+002    
POSF10325 + O2 => A2C11H21 + HO2                                                                                                                 1.8133548E+015    7.9304162E-002    4.4529208E+004    
POSF10325 + HO2 => A2C11H21 + H2O2                                                                                                               6.2547351E+004    2.8228154E+000    1.2874999E+004    
POSF10325 + O => A2C11H21 + OH                                                                                                                   1.0544470E+002    4.0244711E+000    5.9343058E+002    
A2C11H21 => 0.236833 C6H5CH3 + 0.2465 C6H6 + 0.239186 C4H81 + 0.079729 iC4H8 + 0.749451 C3H6 + 1.594576 C2H4 + 0.45 CH4 + 0.7 CH3 + 0.3 H        6.4842275E+012    2.3319098E-003    2.7071425E+004    
A2C11H21 + O2 <=> A2C11H21O2                                                                                                                     2.4567295E+010   -1.7486743E-002    1.5427649E+001    
A2C11H21O2 => A2C11H20OOH                                                                                                                        1.5399418E+012   -2.5698343E-001    1.7303812E+004    
A2C11H20OOH => A2C11H21O2                                                                                                                        1.1621942E+011    1.4236307E-001    1.2304026E+004    
A2C11H20OOH <=> A2C11H20 + HO2                                                                                                                   8.9582054E+012    5.4022969E-002    2.5533890E+004    
A2C11H20 => 0.326667 C6H5CH3 + 0.34 C6H6 + 0.184323 C4H81 + 0.061441 iC4H8 + 0.577546 C3H6 + 1.22882 C2H4 + 1.5 CH3 + 0.5 H                      3.0916505E+016   -1.2548527E-001    7.1098296E+004    
A2C11H20OOH + O2 <=> A2C11H21O4                                                                                                                  3.7425477E+011   -6.5897744E-002    6.9519086E+001    
A2C11H21O4 <=> A2C11H20O3 + OH                                                                                                                   1.5770463E+012    7.0908455E-002   -7.3473270E+000    
A2C11H20O3 => 0.245 C6H5CH3 + 0.255 C6H6 + 0.151603 C4H81 + 0.050534 iC4H8 + 0.475024 C3H6 + CH2O + 1.010689 C2H4 + CO + OH + 1.5 CH3 + 0.5 H    1.0694281E+014    6.6859456E-002    4.1999116E+004    
O2 + H <=> OH + O                                                                                                                                2.6440000E+016   -6.7070000E-001    1.7041000E+004    
O + H2 <=> OH + H                                                                                                                                4.5890000E+004    2.7000000E+000    6.2600000E+003    
OH + H2 <=> H2O + H                                                                                                                              1.7340000E+008    1.5100000E+000    3.4300000E+003    
2 OH <=> H2O + O                                                                                                                                 3.9730000E+004    2.4000000E+000   -2.1100000E+003    
2 H + M <=> H2 + M                                                                                                                               1.7800000E+018   -1.0000000E+000    0.0000000E+000    
   CO2/ 0.000/  H2/ 0.000/  H2O/ 0.000/
H2 + 2 H <=> 2 H2                                                                                                                                9.0000000E+016   -6.0000000E-001    0.0000000E+000    
H2O + 2 H <=> H2O + H2                                                                                                                           5.6240000E+019   -1.2500000E+000    0.0000000E+000    
CO2 + 2 H <=> CO2 + H2                                                                                                                           5.5000000E+020   -2.0000000E+000    0.0000000E+000    
OH + H + M <=> H2O + M                                                                                                                           4.4000000E+022   -2.0000000E+000    0.0000000E+000    
   CO/ 1.750/  CO2/ 3.600/  H2/ 2.000/  H2O/ 6.300/
O + H + M <=> OH + M                                                                                                                             9.4280000E+018   -1.0000000E+000    0.0000000E+000    
   CO/ 1.750/  CO2/ 3.600/  H2/ 2.000/  H2O/ 12.000/
2 O + M <=> O2 + M                                                                                                                               1.2000000E+017   -1.0000000E+000    0.0000000E+000    
   CO/ 1.750/  CO2/ 3.600/  H2/ 2.400/  H2O/ 15.400/
O2 + H (+M) <=> HO2 (+M)                                                                                                                         5.1160000E+012    4.4000000E-001    0.0000000E+000    
                                                                                                                                        LOW /    6.3280000E+019   -1.4000000E+000    0.0000000E+000 /
                                                                                                                       TROE /  5.0000000E-001    1.0000000E-030    1.0000000E+030                   /
   CO/ 1.090/  CO2/ 2.180/  H2O/ 11.890/  O2/ 0.850/
O2 + H2 <=> HO2 + H                                                                                                                              5.9160000E+005    2.4330000E+000    5.3502000E+004    
2 OH (+M) <=> H2O2 (+M)                                                                                                                          1.1100000E+014   -3.7000000E-001    0.0000000E+000    
                                                                                                                                        LOW /    2.0100000E+017   -5.8400000E-001   -2.2930000E+003 /
                                                                                                                       TROE /  7.3460000E-001    9.4000000E+001    1.7560000E+003    5.1820000E+003 /
   CO/ 1.750/  CO2/ 3.600/  H2/ 2.000/  H2O/ 6.000/
HO2 + H <=> H2O + O                                                                                                                              3.9700000E+012    0.0000000E+000    6.7100000E+002    
HO2 + H <=> 2 OH                                                                                                                                 7.4850000E+013    0.0000000E+000    2.9500000E+002    
HO2 + O <=> O2 + OH                                                                                                                              4.0000000E+013    0.0000000E+000    0.0000000E+000    
2 HO2 <=> H2O2 + O2                                                                                                                              1.3000000E+011    0.0000000E+000   -1.6300000E+003    
   DUPLICATE
2 HO2 <=> H2O2 + O2                                                                                                                              3.6580000E+014    0.0000000E+000    1.2000000E+004    
   DUPLICATE
HO2 + OH <=> O2 + H2O                                                                                                                            1.4100000E+018   -1.7600000E+000    6.0000000E+001    
   DUPLICATE
HO2 + OH <=> O2 + H2O                                                                                                                            1.1200000E+085   -2.2300000E+001    2.6900000E+004    
   DUPLICATE
HO2 + OH <=> O2 + H2O                                                                                                                            5.3700000E+070   -1.6720000E+001    3.2900000E+004    
   DUPLICATE
HO2 + OH <=> O2 + H2O                                                                                                                            2.5100000E+012    2.0000000E+000    4.0000000E+004    
   DUPLICATE
HO2 + OH <=> O2 + H2O                                                                                                                            1.0000000E+136   -4.0000000E+001    3.4800000E+004    
   DUPLICATE
H2O2 + H <=> HO2 + H2                                                                                                                            6.0500000E+006    2.0000000E+000    5.2000000E+003    
H2O2 + H <=> H2O + OH                                                                                                                            2.4100000E+013    0.0000000E+000    3.9700000E+003    
H2O2 + O <=> HO2 + OH                                                                                                                            9.6300000E+006    2.0000000E+000    3.9700000E+003    
H2O2 + OH <=> HO2 + H2O                                                                                                                          2.0000000E+012    0.0000000E+000    4.2700000E+002    
   DUPLICATE
H2O2 + OH <=> HO2 + H2O                                                                                                                          2.6700000E+041   -7.0000000E+000    3.7600000E+004    
   DUPLICATE
CO + O (+M) <=> CO2 (+M)                                                                                                                         1.3620000E+010    0.0000000E+000    2.3840000E+003    
                                                                                                                                        LOW /    1.1730000E+024   -2.7900000E+000    4.1910000E+003 /
   CO/ 1.750/  CO2/ 3.600/  H2/ 2.000/  H2O/ 12.000/
CO + OH <=> CO2 + H                                                                                                                              7.0460000E+004    2.0530000E+000   -3.5567000E+002    
   DUPLICATE
CO + OH <=> CO2 + H                                                                                                                              5.7570000E+012   -6.6400000E-001    3.3183000E+002    
   DUPLICATE
O2 + CO <=> CO2 + O                                                                                                                              1.1190000E+012    0.0000000E+000    4.7700000E+004    
HO2 + CO <=> CO2 + OH                                                                                                                            1.5700000E+005    2.1800000E+000    1.7942610E+004    
HCO + H <=> CO + H2                                                                                                                              1.2000000E+014    0.0000000E+000    0.0000000E+000    
HCO + O <=> CO + OH                                                                                                                              3.0000000E+013    0.0000000E+000    0.0000000E+000    
HCO + O <=> CO2 + H                                                                                                                              3.0000000E+013    0.0000000E+000    0.0000000E+000    
HCO + OH <=> CO + H2O                                                                                                                            3.0200000E+013    0.0000000E+000    0.0000000E+000    
HCO + M <=> CO + H + M                                                                                                                           1.8700000E+017   -1.0000000E+000    1.7000000E+004    
   CO/ 1.750/  CO2/ 3.600/  H2/ 2.000/  H2O/ 0.000/
HCO + H2O <=> CO + H2O + H                                                                                                                       2.2440000E+018   -1.0000000E+000    1.7000000E+004    
O2 + HCO <=> HO2 + CO                                                                                                                            1.2040000E+010    8.0700000E-001   -7.2700000E+002    
CO + H2 (+M) <=> CH2O (+M)                                                                                                                       4.3000000E+007    1.5000000E+000    7.9600000E+004    
                                                                                                                                        LOW /    5.0700000E+027   -3.4200000E+000    8.4350000E+004 /
                                                                                                                       TROE /  9.3200000E-001    1.9700000E+002    1.5400000E+003    1.0300000E+004 /
   C2H6/ 3.000/  CH4/ 2.000/  CO/ 1.500/  CO2/ 2.000/  H2/ 2.000/  H2O/ 6.000/
HCO + H (+M) <=> CH2O (+M)                                                                                                                       1.0900000E+012    4.8000000E-001   -2.6000000E+002    
                                                                                                                                        LOW /    1.3500000E+024   -2.5700000E+000    1.4250000E+003 /
                                                                                                                       TROE /  7.8240000E-001    2.7100000E+002    2.7550000E+003    6.5700000E+003 /
   C2H6/ 3.000/  CH4/ 2.000/  CO/ 1.500/  CO2/ 2.000/  H2/ 2.000/  H2O/ 6.000/
CH2 + H (+M) <=> CH3 (+M)                                                                                                                        2.5000000E+016   -8.0000000E-001    0.0000000E+000    
                                                                                                                                        LOW /    3.2000000E+027   -3.1400000E+000    1.2300000E+003 /
                                                                                                                       TROE /  6.8000000E-001    7.8000000E+001    1.9950000E+003    5.5900000E+003 /
   C2H6/ 3.000/  CH4/ 2.000/  CO/ 1.500/  CO2/ 2.000/  H2/ 2.000/  H2O/ 6.000/
O + CH2 <=> HCO + H                                                                                                                              8.0000000E+013    0.0000000E+000    0.0000000E+000    
OH + CH2 <=> CH2O + H                                                                                                                            2.0000000E+013    0.0000000E+000    0.0000000E+000    
CH2 + H2 <=> CH3 + H                                                                                                                             5.0000000E+005    2.0000000E+000    7.2300000E+003    
O2 + CH2 <=> HCO + OH                                                                                                                            1.0600000E+013    0.0000000E+000    1.5000000E+003    
O2 + CH2 <=> CO2 + 2 H                                                                                                                           2.6400000E+012    0.0000000E+000    1.5000000E+003    
HO2 + CH2 <=> CH2O + OH                                                                                                                          2.0000000E+013    0.0000000E+000    0.0000000E+000    
CO + CH2 (+M) <=> CH2CO (+M)                                                                                                                     8.1000000E+011    5.0000000E-001    4.5100000E+003    
                                                                                                                                        LOW /    2.6900000E+033   -5.1100000E+000    7.0950000E+003 /
                                                                                                                       TROE /  5.9070000E-001    2.7500000E+002    1.2260000E+003    5.1850000E+003 /
   C2H6/ 3.000/  CH4/ 2.000/  CO/ 1.500/  CO2/ 2.000/  H2/ 2.000/  H2O/ 6.000/
2 CH2 <=> C2H2 + H2                                                                                                                              3.2000000E+013    0.0000000E+000    0.0000000E+000    
N2 + CH2* <=> N2 + CH2                                                                                                                           1.5000000E+013    0.0000000E+000    6.0000000E+002    
O + CH2* <=> CO + H2                                                                                                                             1.5000000E+013    0.0000000E+000    0.0000000E+000    
O + CH2* <=> HCO + H                                                                                                                             1.5000000E+013    0.0000000E+000    0.0000000E+000    
OH + CH2* <=> CH2O + H                                                                                                                           3.0000000E+013    0.0000000E+000    0.0000000E+000    
CH2* + H2 <=> CH3 + H                                                                                                                            7.0000000E+013    0.0000000E+000    0.0000000E+000    
O2 + CH2* <=> CO + OH + H                                                                                                                        2.8000000E+013    0.0000000E+000    0.0000000E+000    
O2 + CH2* <=> CO + H2O                                                                                                                           1.2000000E+013    0.0000000E+000    0.0000000E+000    
H2O + CH2* <=> H2O + CH2                                                                                                                         3.0000000E+013    0.0000000E+000    0.0000000E+000    
CO + CH2* <=> CO + CH2                                                                                                                           9.0000000E+012    0.0000000E+000    0.0000000E+000    
CO2 + CH2* <=> CO2 + CH2                                                                                                                         7.0000000E+012    0.0000000E+000    0.0000000E+000    
CO2 + CH2* <=> CH2O + CO                                                                                                                         1.4000000E+013    0.0000000E+000    0.0000000E+000    
CH2O + H (+M) <=> CH3O (+M)                                                                                                                      5.4000000E+011    4.5400000E-001    2.6000000E+003    
                                                                                                                                        LOW /    2.2000000E+030   -4.8000000E+000    5.5600000E+003 /
                                                                                                                       TROE /  7.5800000E-001    9.4000000E+001    1.5550000E+003    4.2000000E+003 /
   C2H6/ 3.000/  CH4/ 2.000/  CO/ 1.500/  CO2/ 2.000/  H2/ 2.000/  H2O/ 6.000/
CH2O + H <=> HCO + H2                                                                                                                            2.3000000E+010    1.0500000E+000    3.2750000E+003    
CH2O + O <=> HCO + OH                                                                                                                            3.9000000E+013    0.0000000E+000    3.5400000E+003    
CH2O + OH <=> HCO + H2O                                                                                                                          3.4300000E+009    1.1800000E+000   -4.4700000E+002    
O2 + CH2O <=> HO2 + HCO                                                                                                                          1.0000000E+014    0.0000000E+000    4.0000000E+004    
HO2 + CH2O <=> H2O2 + HCO                                                                                                                        1.0000000E+012    0.0000000E+000    8.0000000E+003    
CH3 + H (+M) <=> CH4 (+M)                                                                                                                        1.2700000E+016   -6.3000000E-001    3.8300000E+002    
                                                                                                                                        LOW /    2.4770000E+033   -4.7600000E+000    2.4400000E+003 /
                                                                                                                       TROE /  7.8300000E-001    7.4000000E+001    2.9410000E+003    6.9640000E+003 /
   C2H6/ 3.000/  CH4/ 2.000/  CO/ 1.500/  CO2/ 2.000/  H2/ 2.000/  H2O/ 6.000/
O + CH3 <=> CH2O + H                                                                                                                             8.4300000E+013    0.0000000E+000    0.0000000E+000    
OH + CH3 <=> H2O + CH2                                                                                                                           5.6000000E+007    1.6000000E+000    5.4200000E+003    
OH + CH3 <=> H2O + CH2*                                                                                                                          2.5010000E+013    0.0000000E+000    0.0000000E+000    
O2 + CH3 <=> CH3O + O                                                                                                                            3.0830000E+013    0.0000000E+000    2.8800000E+004    
O2 + CH3 <=> CH2O + OH                                                                                                                           3.6000000E+010    0.0000000E+000    8.9400000E+003    
HO2 + CH3 <=> O2 + CH4                                                                                                                           1.0000000E+012    0.0000000E+000    0.0000000E+000    
HO2 + CH3 <=> CH3O + OH                                                                                                                          1.3400000E+013    0.0000000E+000    0.0000000E+000    
H2O2 + CH3 <=> HO2 + CH4                                                                                                                         2.4500000E+004    2.4700000E+000    5.1800000E+003    
HCO + CH3 <=> CO + CH4                                                                                                                           8.4800000E+012    0.0000000E+000    0.0000000E+000    
CH2O + CH3 <=> HCO + CH4                                                                                                                         3.3200000E+003    2.8100000E+000    5.8600000E+003    
CH3 + CH2 <=> C2H4 + H                                                                                                                           4.0000000E+013    0.0000000E+000    0.0000000E+000    
CH3 + CH2* <=> C2H4 + H                                                                                                                          1.2000000E+013    0.0000000E+000   -5.7000000E+002    
2 CH3 (+M) <=> C2H6 (+M)                                                                                                                         2.1200000E+016   -9.7000000E-001    6.2000000E+002    
                                                                                                                                        LOW /    1.7700000E+050   -9.6700000E+000    6.2200000E+003 /
                                                                                                                       TROE /  5.3250000E-001    1.5100000E+002    1.0380000E+003    4.9700000E+003 /
   C2H6/ 3.000/  CH4/ 2.000/  CO/ 1.500/  CO2/ 2.000/  H2/ 2.000/  H2O/ 6.000/
2 CH3 <=> C2H5 + H                                                                                                                               4.9900000E+012    1.0000000E-001    1.0600000E+004    
HCCO + CH3 <=> C2H4 + CO                                                                                                                         5.0000000E+013    0.0000000E+000    0.0000000E+000    
CH3O + H <=> CH2O + H2                                                                                                                           2.0000000E+013    0.0000000E+000    0.0000000E+000    
CH3O + H <=> OH + CH3                                                                                                                            3.2000000E+013    0.0000000E+000    0.0000000E+000    
CH3O + H <=> H2O + CH2*                                                                                                                          1.6000000E+013    0.0000000E+000    0.0000000E+000    
CH3O + O <=> CH2O + OH                                                                                                                           1.0000000E+013    0.0000000E+000    0.0000000E+000    
CH3O + OH <=> CH2O + H2O                                                                                                                         5.0000000E+012    0.0000000E+000    0.0000000E+000    
O2 + CH3O <=> HO2 + CH2O                                                                                                                         4.2800000E-013    7.6000000E+000   -3.5300000E+003    
CH4 + H <=> CH3 + H2                                                                                                                             6.6000000E+008    1.6200000E+000    1.0840000E+004    
CH4 + O <=> OH + CH3                                                                                                                             1.0200000E+009    1.5000000E+000    8.6000000E+003    
OH + CH4 <=> H2O + CH3                                                                                                                           1.0000000E+008    1.6000000E+000    3.1200000E+003    
CH4 + CH2 <=> 2 CH3                                                                                                                              2.4600000E+006    2.0000000E+000    8.2700000E+003    
CH4 + CH2* <=> 2 CH3                                                                                                                             1.6000000E+013    0.0000000E+000   -5.7000000E+002    
HCCO + H <=> CO + CH2*                                                                                                                           1.0000000E+014    0.0000000E+000    0.0000000E+000    
HCCO + O <=> 2 CO + H                                                                                                                            1.0000000E+014    0.0000000E+000    0.0000000E+000    
HCCO + O2 <=> 2 CO + OH                                                                                                                          1.6000000E+012    0.0000000E+000    8.5400000E+002    
HCCO + CH2 <=> CO + C2H3                                                                                                                         3.0000000E+013    0.0000000E+000    0.0000000E+000    
2 HCCO <=> 2 CO + C2H2                                                                                                                           1.0000000E+013    0.0000000E+000    0.0000000E+000    
C2H3 (+M) <=> C2H2 + H (+M)                                                                                                                      3.8600000E+008    1.6200000E+000    3.7048200E+004    
                                                                                                                                        LOW /    2.5650000E+027   -3.4000000E+000    3.5798720E+004 /
                                                                                                                       TROE /  1.9816000E+000    5.3837000E+003    4.2932000E+000   -7.9500000E-002 /
   C2H2/ 3.000/  C2H4/ 3.000/  C2H6/ 3.000/  CH4/ 2.000/  CO/ 1.500/  CO2/ 2.000/  H2/ 2.000/  H2O/ 6.000/
C2H2 + O <=> CO + CH2                                                                                                                            4.0800000E+006    2.0000000E+000    1.9000000E+003    