! GRI-Mech Version 3.0 7/30/99  CHEMKIN format
! See README30 file at anonymous FTP site unix.sri.com, directory gri;
! WorldWideWeb home page http://www.me.berkeley.edu/gri_mech/ or
! through http://www.gri.org , under 'Basic  Research',
! for additional information, contacts, and disclaimer
!THERMO
! Insert GRI-Mech thermodynamics here or use in default file
!END
ELEMENTS
O H C N AR 
END
SPECIES
H2 H O O2 OH 
H2O HO2 H2O2 CH2 CH2(S) 
CH3 CH4 CO CO2 HCO 
CH2O CH3O C2H4 C2H5 C2H6 
N NO NO2 N2 C3H7 
C3H8 CH3CHO 
END

THERMO ALL
  300.000  1000.000  5000.000
H2                TPIS78H   2               G     200.0    3500.0  1000.0      1
    3.3372792E0 -4.94024731E-5  4.99456778E-7-1.79566394E-10 2.00255376E-14    2
  -9.50158922E2  -3.20502331E0   2.34433112E0  7.98052075E-3  -1.9478151E-5    3
  2.01572094E-8-7.37611761E-12  -9.17935173E2  6.83010238E-1                   4
H                 L.7.88H   1               G     200.0    3500.0  1000.0      1
   2.50000001E0-2.30842973E-11 1.61561948E-14-4.73515235E-18 4.98197357E-22    2
   2.54736599E4 -4.46682914E-1          2.5E0 7.05332819E-13-1.99591964E-15    3
 2.30081632E-18-9.27732332E-22   2.54736599E4 -4.46682853E-1                   4
! GRI-Mech Version 3.0 Thermodynamics released 7/30/99
! NASA Polynomial format for CHEMKIN-II
! see README file for disclaimer
O                 L.1.90O   1               G     200.0    3500.0  1000.0      1
   2.56942078E0 -8.59741137E-5  4.19484589E-8-1.00177799E-11 1.22833691E-15    2
   2.92175791E4   4.78433864E0    3.1682671E0 -3.27931884E-3  6.64306396E-6    3
 -6.12806624E-9 2.11265971E-12   2.91222592E4   2.05193346E0                   4
O2                TPIS89O   2               G     200.0    3500.0  1000.0      1
   3.28253784E0  1.48308754E-3 -7.57966669E-7 2.09470555E-10-2.16717794E-14    2
  -1.08845772E3   5.45323129E0   3.78245636E0 -2.99673416E-3  9.84730201E-6    3
 -9.68129509E-9 3.24372837E-12  -1.06394356E3   3.65767573E0                   4
OH                RUS.78H   1O   1          G     200.0    3500.0  1000.0      1
   3.09288767E0  5.48429716E-4  1.26505228E-7-8.79461556E-11 1.17412376E-14    2
     3.858657E3    4.4766961E0   3.99201543E0 -2.40131752E-3  4.61793841E-6    3
 -3.88113333E-9  1.3641147E-12   3.61508056E3 -1.03925458E-1                   4
H2O               L.8.89H   2O   1          G     200.0    3500.0  1000.0      1
   3.03399249E0  2.17691804E-3 -1.64072518E-7 -9.7041987E-11 1.68200992E-14    2
  -3.00042971E4    4.9667701E0   4.19864056E0  -2.0364341E-3  6.52040211E-6    3
 -5.48797062E-9 1.77197817E-12  -3.02937267E4 -8.49032208E-1                   4
HO2               L.5.89H   1O   2          G     200.0    3500.0  1000.0      1
    4.0172109E0  2.23982013E-3  -6.3365815E-7  1.1424637E-10-1.07908535E-14    2
   1.11856713E2   3.78510215E0   4.30179801E0 -4.74912051E-3  2.11582891E-5    3
 -2.42763894E-8 9.29225124E-12    2.9480804E2   3.71666245E0                   4
H2O2              L.7.88H   2O   2          G     200.0    3500.0  1000.0      1
   4.16500285E0  4.90831694E-3 -1.90139225E-6 3.71185986E-10-2.87908305E-14    2
  -1.78617877E4   2.91615662E0   4.27611269E0 -5.42822417E-4  1.67335701E-5    3
 -2.15770813E-8 8.62454363E-12  -1.77025821E4   3.43505074E0                   4
CH2               L.S.93C   1H   2          G     200.0    3500.0  1000.0      1
   2.87410113E0  3.65639292E-3 -1.40894597E-6 2.60179549E-10-1.87727567E-14    2
    4.6263604E4   6.17119324E0   3.76267867E0  9.68872143E-4  2.79489841E-6    3
 -3.85091153E-9 1.68741719E-12   4.60040401E4   1.56253185E0                   4
CH2(S)            L.S.93C   1H   2          G     200.0    3500.0  1000.0      1
   2.29203842E0  4.65588637E-3 -2.01191947E-6    4.17906E-10-3.39716365E-14    2
   5.09259997E4   8.62650169E0   4.19860411E0 -2.36661419E-3   8.2329622E-6    3
 -6.68815981E-9 1.94314737E-12   5.04968163E4 -7.69118967E-1                   4
CH3               L11.89C   1H   3          G     200.0    3500.0  1000.0      1
   2.28571772E0  7.23990037E-3 -2.98714348E-6 5.95684644E-10-4.67154394E-14    2
   1.67755843E4   8.48007179E0    3.6735904E0  2.01095175E-3  5.73021856E-6    3
 -6.87117425E-9 2.54385734E-12   1.64449988E4   1.60456433E0                   4
CH4               L.8.88C   1H   4          G     200.0    3500.0  1000.0      1
   7.4851495E-2  1.33909467E-2 -5.73285809E-6  1.22292535E-9 -1.0181523E-13    2
  -9.46834459E3    1.8437318E1   5.14987613E0 -1.36709788E-2  4.91800599E-5    3
 -4.84743026E-8 1.66693956E-11  -1.02466476E4  -4.64130376E0                   4
CO                TPIS79C   1O   1          G     200.0    3500.0  1000.0      1
   2.71518561E0  2.06252743E-3 -9.98825771E-7 2.30053008E-10-2.03647716E-14    2
  -1.41518724E4   7.81868772E0   3.57953347E0  -6.1035368E-4  1.01681433E-6    3
 9.07005884E-10-9.04424499E-13   -1.4344086E4   3.50840928E0                   4
CO2               L.7.88C   1O   2          G     200.0    3500.0  1000.0      1
   3.85746029E0  4.41437026E-3 -2.21481404E-6 5.23490188E-10-4.72084164E-14    2
   -4.8759166E4   2.27163806E0   2.35677352E0  8.98459677E-3 -7.12356269E-6    3
  2.45919022E-9-1.43699548E-13  -4.83719697E4   9.90105222E0                   4
HCO               L12.89C   1H   1O   1     G     200.0    3500.0  1000.0      1
   2.77217438E0  4.95695526E-3 -2.48445613E-6 5.89161778E-10-5.33508711E-14    2
   4.01191815E3   9.79834492E0   4.22118584E0 -3.24392532E-3  1.37799446E-5    3
 -1.33144093E-8 4.33768865E-12   3.83956496E3   3.39437243E0                   4
CH2O              L.8.88C   1H   2O   1     G     200.0    3500.0  1000.0      1
   1.76069008E0  9.20000082E-3 -4.42258813E-6  1.00641212E-9 -8.8385564E-14    2
  -1.39958323E4    1.3656323E1   4.79372315E0 -9.90833369E-3  3.73220008E-5    3
 -3.79285261E-8 1.31772652E-11  -1.43089567E4    6.028129E-1                   4
CH3O              121686C   1H   3O   1     G     300.0    3000.0  1000.0      1
     3.770799E0    7.871497E-3   -2.656384E-6   3.944431E-10  -2.112616E-14    2
    1.2783252E2     2.929575E0     2.106204E0    7.216595E-3    5.338472E-6    3
   -7.377636E-9    2.07561E-12     9.786011E2    1.3152177E1                   4
C2H4              L.1.91C   2H   4          G     200.0    3500.0  1000.0      1
   2.03611116E0  1.46454151E-2 -6.71077915E-6  1.47222923E-9-1.25706061E-13    2
   4.93988614E3   1.03053693E1   3.95920148E0 -7.57052247E-3  5.70990292E-5    3
 -6.91588753E-8 2.69884373E-11   5.08977593E3   4.09733096E0                   4
C2H5              L12.92C   2H   5          G     200.0    3500.0  1000.0      1
   1.95465642E0  1.73972722E-2 -7.98206668E-6  1.75217689E-9-1.49641576E-13    2
     1.285752E4   1.34624343E1   4.30646568E0 -4.18658892E-3  4.97142807E-5    3
 -5.99126606E-8 2.30509004E-11   1.28416265E4   4.70720924E0                   4
C2H6              L.8.88C   2H   6          G     200.0    3500.0  1000.0      1
    1.0718815E0  2.16852677E-2 -1.00256067E-5  2.21412001E-9 -1.9000289E-13    2
  -1.14263932E4   1.51156107E1   4.29142492E0  -5.5015427E-3  5.99438288E-5    3
 -7.08466285E-8 2.68685771E-11  -1.15222055E4   2.66682316E0                   4
N                 L.6.88N   1               G     200.0    6000.0  1000.0      1
    2.4159429E0   1.7489065E-4  -1.1902369E-7  3.0226245E-11 -2.0360982E-15    2
    5.6133773E4    4.6496096E0          2.5E0          0.0E0          0.0E0    3
          0.0E0          0.0E0    5.6104637E4    4.1939087E0                   4
NO                RUS.78N   1O   1          G     200.0    6000.0  1000.0      1
    3.2606056E0   1.1911043E-3  -4.2917048E-7  6.9457669E-11 -4.0336099E-15    2
    9.9209746E3    6.3693027E0    4.2184763E0   -4.638976E-3   1.1041022E-5    3
  -9.3361354E-9   2.803577E-12     9.844623E3    2.2808464E0                   4
NO2               L.7.88N   1O   2          G     200.0    6000.0  1000.0      1
    4.8847542E0   2.1723956E-3  -8.2806906E-7   1.574751E-10 -1.0510895E-14    2
    2.3164983E3  -1.1741695E-1    3.9440312E0   -1.585429E-3   1.6657812E-5    3
  -2.0475426E-8  7.8350564E-12    2.8966179E3    6.3119917E0                   4
N2                121286N   2               G     300.0    5000.0  1000.0      1
      2.92664E0   1.4879768E-3    -5.68476E-7  1.0097038E-10  -6.753351E-15    2
    -9.227977E2     5.980528E0     3.298677E0   1.4082404E-3   -3.963222E-6    3
    5.641515E-9  -2.444854E-12   -1.0208999E3     3.950372E0                   4
C3H7              L.9.84C   3H   7          G     300.0    5000.0  1000.0      1
    7.7026987E0   1.6044203E-2   -5.283322E-6   7.629859E-10 -3.9392284E-14    2
    8.2984336E3    -1.548018E1    1.0515518E0    2.599198E-2    2.380054E-6    3
  -1.9609569E-8   9.373247E-12    1.0631863E4    2.1122559E1                   4
C3H8              L.4.85C   3H   8          G     300.0    5000.0  1000.0      1
    7.5341368E0   1.8872239E-2  -6.2718491E-6  9.1475649E-10 -4.7838069E-14    2
   -1.6467516E4   -1.7892349E1   9.3355381E-1   2.6424579E-2   6.1059727E-6    3
  -2.1977499E-8  9.5149253E-12    -1.395852E4    1.9201691E1                   4
CH3CHO            L.8.88C   2H   4O   1     G     200.0    6000.0  1000.0      1
    5.4041108E0   1.1723059E-2  -4.2263137E-6  6.8372451E-10 -4.0984863E-14    2
   -2.2593122E4   -3.4807917E0    4.7294595E0  -3.1932858E-3   4.7534921E-5    3
  -5.7458611E-8  2.1931112E-11   -2.1572878E4    4.1030159E0                   4
END

TRANSPORT ALL
H2 1 38.0 2.92 0.0 0.79 280.0
H 0 145.0 2.05 0.0 0.0 0.0
O 0 80.0 2.75 0.0 0.0 0.0
O2 1 107.4 3.458 0.0 1.6 3.8
OH 1 80.0 2.75 0.0 0.0 0.0
H2O 2 572.4 2.605 1.844 0.0 4.0
HO2 2 107.4 3.458 0.0 0.0 1.0
H2O2 2 107.4 3.458 0.0 0.0 3.8
CH2 1 144.0 3.8 0.0 0.0 0.0
CH2(S) 1 144.0 3.8 0.0 0.0 0.0
CH3 1 144.0 3.8 0.0 0.0 0.0
CH4 2 141.4 3.746 0.0 2.6 13.0
CO 1 98.1 3.65 0.0 1.95 1.8
CO2 1 244.0 3.763 0.0 2.65 2.1
HCO 2 498.0 3.59 0.0 0.0 0.0
CH2O 2 498.0 3.59 0.0 0.0 2.0
CH3O 2 417.0 3.69 1.7 0.0 2.0
C2H4 2 280.8 3.971 0.0 0.0 1.5
C2H5 2 252.3 4.302 0.0 0.0 1.5
C2H6 2 252.3 4.302 0.0 0.0 1.5
N 0 71.4 3.298 0.0 0.0 0.0
NO 1 97.53 3.621 0.0 1.76 4.0
NO2 2 200.0 3.5 0.0 0.0 1.0
N2 1 97.53 3.621 0.0 1.76 4.0
C3H7 2 266.8 4.982 0.0 0.0 1.0
C3H8 2 266.8 4.982 0.0 0.0 1.0
CH3CHO 2 436.0 3.97 0.0 0.0 2.0
END

REACTIONS MOLES CAL/MOLE
2O+M=O2+M    1.2E17 -1.0 0.0E0
    H2/2.4/
    H2O/15.4/
    CH4/2.0/
    CO/1.75/
    CO2/3.6/
    C2H6/3.0/
O+H+M=OH+M    5.0E17 -1.0 0.0E0
    H2/2.0/
    H2O/6.0/
    CH4/2.0/
    CO/1.5/
    CO2/2.0/
    C2H6/3.0/
O+H2=H+OH    3.87E4 2.7 6.26E3
O+HO2=OH+O2    2.0E13 0.0 0.0E0
O+H2O2=OH+HO2    9.63E6 2.0 4.0E3
O+CH2=H+HCO    8.0E13 0.0 0.0E0
O+CH2(S)=H2+CO    1.5E13 0.0 0.0E0
O+CH2(S)=H+HCO    1.5E13 0.0 0.0E0
O+CH3=H+CH2O    5.06E13 0.0 0.0E0
O+CH4=OH+CH3    1.02E9 1.5 8.6E3
O+CO(+M)=CO2(+M)    1.8E10 0.0 2.385E3
    H2/2.0/
    O2/6.0/
    H2O/6.0/
    CH4/2.0/
    CO/1.5/
    CO2/3.5/
    C2H6/3.0/
    LOW/6.02E14 0.0E0 3.0E3/
O+HCO=OH+CO    3.0E13 0.0 0.0E0
O+HCO=H+CO2    3.0E13 0.0 0.0E0
O+CH2O=OH+HCO    3.9E13 0.0 3.54E3
O+CH3O=OH+CH2O    1.0E13 0.0 0.0E0
O+C2H4=CH3+HCO    1.25E7 1.83 2.2E2
O+C2H5=CH3+CH2O    2.24E13 0.0 0.0E0
O+C2H6=OH+C2H5    8.98E7 1.92 5.69E3
O2+CO=O+CO2    2.5E12 0.0 4.78E4
O2+CH2O=HO2+HCO    1.0E14 0.0 4.0E4
H+O2+M=HO2+M    2.8E18 -0.86 0.0E0
    O2/0.0/
    H2O/0.0/
    CO/0.75/
    CO2/1.5/
    C2H6/1.5/
    N2/0.0/
H+2O2=HO2+O2    2.08E19 -1.24 0.0E0
H+O2+H2O=HO2+H2O    1.126E19 -0.76 0.0E0
H+O2+N2=HO2+N2    2.6E19 -1.24 0.0E0
H+O2=O+OH    2.65E16 -0.6707 1.7041E4
2H+M=H2+M    1.0E18 -1.0 0.0E0
    H2/0.0/
    H2O/0.0/
    CH4/2.0/
    CO2/0.0/
    C2H6/3.0/
2H+H2=2H2    9.0E16 -0.6 0.0E0
2H+H2O=H2+H2O    6.0E19 -1.25 0.0E0
2H+CO2=H2+CO2    5.5E20 -2.0 0.0E0
H+OH+M=H2O+M    2.2E22 -2.0 0.0E0
    H2/0.73/
    H2O/3.65/
    CH4/2.0/
    C2H6/3.0/
H+HO2=O+H2O    3.97E12 0.0 6.71E2
H+HO2=O2+H2    4.48E13 0.0 1.068E3
H+HO2=2OH    8.4E13 0.0 6.35E2
H+H2O2=HO2+H2    1.21E7 2.0 5.2E3
H+H2O2=OH+H2O    1.0E13 0.0 3.6E3
H+CH2(+M)=CH3(+M)    6.0E14 0.0 0.0E0
    H2/2.0/
    H2O/6.0/
    CH4/2.0/
    CO/1.5/
    CO2/2.0/
    C2H6/3.0/
    LOW/1.04E26 -2.76E0 1.6E3/
    TROE/5.62E-1 9.1E1 5.836E3 8.552E3/
H+CH3(+M)=CH4(+M)    1.39E16 -0.534 5.36E2
    H2/2.0/
    H2O/6.0/
    CH4/3.0/
    CO/1.5/
    CO2/2.0/
    C2H6/3.0/
    LOW/2.62E33 -4.76E0 2.44E3/
    TROE/7.83E-1 7.4E1 2.941E3 6.964E3/
H+CH4=CH3+H2    6.6E8 1.62 1.084E4
H+HCO(+M)=CH2O(+M)    1.09E12 0.48 -2.6E2
    H2/2.0/
    H2O/6.0/
    CH4/2.0/
    CO/1.5/
    CO2/2.0/
    C2H6/3.0/
    LOW/2.47E24 -2.57E0 4.25E2/
    TROE/7.824E-1 2.71E2 2.755E3 6.57E3/
H+HCO=H2+CO    7.34E13 0.0 0.0E0
H+CH2O(+M)=CH3O(+M)    5.4E11 0.454 2.6E3
    H2/2.0/
    H2O/6.0/
    CH4/2.0/
    CO/1.5/
    CO2/2.0/
    C2H6/3.0/
    LOW/2.2E30 -4.8E0 5.56E3/
    TROE/7.58E-1 9.4E1 1.555E3 4.2E3/
H+CH2O=HCO+H2    5.74E7 1.9 2.742E3
H+CH3O=H2+CH2O    2.0E13 0.0 0.0E0
H+CH3O=OH+CH3    1.5E12 0.5 -1.1E2
H+CH3O=CH2(S)+H2O    2.62E14 -0.23 1.07E3
H+C2H4(+M)=C2H5(+M)    5.4E11 0.454 1.82E3
    H2/2.0/
    H2O/6.0/
    CH4/2.0/
    CO/1.5/
    CO2/2.0/
    C2H6/3.0/
    LOW/6.0E41 -7.62E0 6.97E3/
    TROE/9.753E-1 2.1E2 9.84E2 4.374E3/
H+C2H5(+M)=C2H6(+M)    5.21E17 -0.99 1.58E3
    H2/2.0/
    H2O/6.0/
    CH4/2.0/
    CO/1.5/
    CO2/2.0/
    C2H6/3.0/
    LOW/1.99E41 -7.08E0 6.685E3/
    TROE/8.422E-1 1.25E2 2.219E3 6.882E3/
H+C2H5=H2+C2H4    2.0E12 0.0 0.0E0
H+C2H6=C2H5+H2    1.15E8 1.9 7.53E3
H2+CO(+M)=CH2O(+M)    4.3E7 1.5 7.96E4
    H2/2.0/
    H2O/6.0/
    CH4/2.0/
    CO/1.5/
    CO2/2.0/
    C2H6/3.0/
    LOW/5.07E27 -3.42E0 8.435E4/
    TROE/9.32E-1 1.97E2 1.54E3 1.03E4/
OH+H2=H+H2O    2.16E8 1.51 3.43E3
2OH(+M)=H2O2(+M)    7.4E13 -0.37 0.0E0
    H2/2.0/
    H2O/6.0/
    CH4/2.0/
    CO/1.5/
    CO2/2.0/
    C2H6/3.0/
    LOW/2.3E18 -9.0E-1 -1.7E3/
    TROE/7.346E-1 9.4E1 1.756E3 5.182E3/
2OH=O+H2O    3.57E4 2.4 -2.11E3
OH+HO2=O2+H2O    1.45E13 0.0 -5.0E2
    DUP
OH+H2O2=HO2+H2O    2.0E12 0.0 4.27E2
    DUP
OH+H2O2=HO2+H2O    1.7E18 0.0 2.941E4
    DUP
OH+CH2=H+CH2O    2.0E13 0.0 0.0E0
OH+CH2(S)=H+CH2O    3.0E13 0.0 0.0E0
OH+CH3=CH2+H2O    5.6E7 1.6 5.42E3
OH+CH3=CH2(S)+H2O    6.44E17 -1.34 1.417E3
OH+CH4=CH3+H2O    1.0E8 1.6 3.12E3
OH+CO=H+CO2    4.76E7 1.228 7.0E1
OH+HCO=H2O+CO    5.0E13 0.0 0.0E0
OH+CH2O=HCO+H2O    3.43E9 1.18 -4.47E2
OH+CH3O=H2O+CH2O    5.0E12 0.0 0.0E0
OH+C2H6=C2H5+H2O    3.54E6 2.12 8.7E2
2HO2=O2+H2O2    1.3E11 0.0 -1.63E3
    DUP
2HO2=O2+H2O2    4.2E14 0.0 1.2E4
    DUP
HO2+CH2=OH+CH2O    2.0E13 0.0 0.0E0
HO2+CH3=O2+CH4    1.0E12 0.0 0.0E0
HO2+CH3=OH+CH3O    3.78E13 0.0 0.0E0
HO2+CO=OH+CO2    1.5E14 0.0 2.36E4
HO2+CH2O=HCO+H2O2    5.6E6 2.0 1.2E4
CH2+O2=>OH+H+CO    5.0E12 0.0 1.5E3
CH2+H2=H+CH3    5.0E5 2.0 7.23E3
CH2+CH3=H+C2H4    4.0E13 0.0 0.0E0
CH2+CH4=2CH3    2.46E6 2.0 8.27E3
CH2(S)+N2=CH2+N2    1.5E13 0.0 6.0E2
CH2(S)+O2=H+OH+CO    2.8E13 0.0 0.0E0
CH2(S)+O2=CO+H2O    1.2E13 0.0 0.0E0
CH2(S)+H2=CH3+H    7.0E13 0.0 0.0E0
CH2(S)+H2O=CH2+H2O    3.0E13 0.0 0.0E0
CH2(S)+CH3=H+C2H4    1.2E13 0.0 -5.7E2
CH2(S)+CH4=2CH3    1.6E13 0.0 -5.7E2
CH2(S)+CO=CH2+CO    9.0E12 0.0 0.0E0
CH2(S)+CO2=CH2+CO2    7.0E12 0.0 0.0E0
CH2(S)+CO2=CO+CH2O    1.4E13 0.0 0.0E0
CH2(S)+C2H6=CH3+C2H5    4.0E13 0.0 -5.5E2
CH3+O2=O+CH3O    3.56E13 0.0 3.048E4
CH3+O2=OH+CH2O    2.31E12 0.0 2.0315E4
CH3+H2O2=HO2+CH4    2.45E4 2.47 5.18E3
2CH3(+M)=C2H6(+M)    6.77E16 -1.18 6.54E2
    H2/2.0/
    H2O/6.0/
    CH4/2.0/
    CO/1.5/
    CO2/2.0/
    C2H6/3.0/
    LOW/3.4E41 -7.03E0 2.762E3/
    TROE/6.19E-1 7.32E1 1.18E3 9.999E3/
2CH3=H+C2H5    6.84E12 0.1 1.06E4
CH3+HCO=CH4+CO    2.648E13 0.0 0.0E0
CH3+CH2O=HCO+CH4    3.32E3 2.81 5.86E3
CH3+C2H6=C2H5+CH4    6.14E6 1.74 1.045E4
HCO+H2O=H+CO+H2O    1.5E18 -1.0 1.7E4
HCO+M=H+CO+M    1.87E17 -1.0 1.7E4
    H2/2.0/
    H2O/0.0/
    CH4/2.0/
    CO/1.5/
    CO2/2.0/
    C2H6/3.0/
HCO+O2=HO2+CO    1.345E13 0.0 4.0E2
CH3O+O2=HO2+CH2O    4.28E-13 7.6 -3.53E3
C2H5+O2=HO2+C2H4    8.4E11 0.0 3.875E3
N+NO=N2+O    2.7E13 0.0 3.55E2
N+O2=NO+O    9.0E9 1.0 6.5E3
N+OH=NO+H    3.36E13 0.0 3.85E2
HO2+NO=NO2+OH    2.11E12 0.0 -4.8E2
NO+O+M=NO2+M    1.06E20 -1.41 0.0E0
    H2/2.0/
    H2O/6.0/
    CH4/2.0/
    CO/1.5/
    CO2/2.0/
    C2H6/3.0/
NO2+O=NO+O2    3.9E12 0.0 -2.4E2
NO2+H=NO+OH    1.32E14 0.0 3.6E2
N+CO2=NO+CO    3.0E12 0.0 1.13E4
O+CH3=>H+H2+CO    3.37E13 0.0 0.0E0
O+C2H5=H+CH3CHO    1.096E14 0.0 0.0E0
OH+HO2=O2+H2O    5.0E15 0.0 1.733E4
    DUP
OH+CH3=>H2+CH2O    8.0E9 0.5 -1.755E3
CH2+O2=>2H+CO2    5.8E12 0.0 1.5E3
CH2+O2=O+CH2O    2.4E12 0.0 1.5E3
CH2(S)+H2O=>H2+CH2O    6.82E10 0.25 -9.35E2
O+CH3CHO=>OH+CH3+CO    2.92E12 0.0 1.808E3
O2+CH3CHO=>HO2+CH3+CO    3.01E13 0.0 3.915E4
H+CH3CHO=>CH3+H2+CO    2.05E9 1.16 2.405E3
OH+CH3CHO=>CH3+H2O+CO    2.343E10 0.73 -1.113E3
HO2+CH3CHO=>CH3+H2O2+CO    3.01E12 0.0 1.1923E4
CH3+CH3CHO=>CH3+CH4+CO    2.72E6 1.77 5.92E3
CH3+C2H5(+M)=C3H8(+M)    9.43E12 0.0 0.0E0
    H2/2.0/
    H2O/6.0/
    CH4/2.0/
    CO/1.5/
    CO2/2.0/
    C2H6/3.0/
    LOW/2.71E74 -1.682E1 1.3065E4/
    TROE/1.527E-1 2.91E2 2.742E3 7.748E3/
O+C3H8=OH+C3H7    1.93E5 2.68 3.716E3
H+C3H8=C3H7+H2    1.32E6 2.54 6.756E3
OH+C3H8=C3H7+H2O    3.16E7 1.8 9.34E2
C3H7+H2O2=HO2+C3H8    3.78E2 2.72 1.5E3
CH3+C3H8=C3H7+CH4    9.03E-1 3.65 7.154E3
CH3+C2H4(+M)=C3H7(+M)    2.55E6 1.6 5.7E3
    H2/2.0/
    H2O/6.0/
    CH4/2.0/
    CO/1.5/
    CO2/2.0/
    C2H6/3.0/
    LOW/3.0E63 -1.46E1 1.817E4/
    TROE/1.894E-1 2.77E2 8.748E3 7.891E3/
O+C3H7=C2H5+CH2O    9.64E13 0.0 0.0E0
H+C3H7(+M)=C3H8(+M)    3.613E13 0.0 0.0E0
    H2/2.0/
    H2O/6.0/
    CH4/2.0/
    CO/1.5/
    CO2/2.0/
    C2H6/3.0/
    LOW/4.42E61 -1.3545E1 1.1357E4/
    TROE/3.15E-1 3.69E2 3.285E3 6.667E3/
H+C3H7=CH3+C2H5    4.06E6 2.19 8.9E2
HO2+C3H7=O2+C3H8    2.55E10 0.255 -9.43E2
HO2+C3H7=>OH+C2H5+CH2O    2.41E13 0.0 0.0E0
CH3+C3H7=2C2H5    1.927E13 -0.32 0.0E0
END
